*SPEF "IEEE 1481-1998"
*DESIGN "dvfs_tunable_multiplier"
*DATE "Thu Mar 26 19:50:32 2026"
*VENDOR "Cadence Design Systems, Inc."
*PROGRAM "Innovus"
*VERSION "21.15-s110_1"
*DESIGN_FLOW "COUPLING C" "PIN_CAP NONE" "NAME_SCOPE LOCAL"
*DIVIDER /
*DELIMITER :
*BUS_DELIMITER []
*T_UNIT 1 NS
*C_UNIT 1 PF
*R_UNIT 1 OHM
*L_UNIT 1 HENRY

// MMMC spef file for corner 'rc_worst'

*NAME_MAP

*1 FE_PHN23_n_79
*2 FE_PHN22_n_82
*3 FE_PHN21_n_84
*4 FE_PHN20_n_85
*5 FE_PHN19_n_83
*6 FE_PHN18_div_counter_0
*7 FE_PHN17_n_82
*8 FE_PHN16_n_83
*9 FE_PHN15_n_84
*10 FE_PHN14_n_85
*11 FE_PHN13_n_79
*12 FE_PHN12_n_80
*13 FE_PHN11_n_90
*14 FE_PHN10_n_72
*15 FE_PHN9_n_38
*16 FE_PHN8_n_40
*17 FE_PHN7_n_37
*18 FE_PHN6_n_36
*19 FE_PHN5_n_39
*20 FE_PHN4_n_33
*21 FE_PHN3_n_34
*22 FE_PHN2_n_35
*23 FE_PHN1_n_1
*24 FE_RN_11_0
*25 FE_RN_10_0
*26 FE_RN_9_0
*27 FE_RN_8_0
*28 FE_RN_7_0
*29 FE_RN_6_0
*30 FE_RN_5_0
*31 FE_RN_4_0
*32 FE_RN_3_0
*33 FE_RN_2_0
*34 FE_RN_1_0
*35 FE_RN_0_0
*36 clk_in
*37 rst
*38 start
*39 a[7]
*40 a[6]
*41 a[5]
*42 a[4]
*43 a[3]
*44 a[2]
*45 a[1]
*46 a[0]
*47 b[7]
*48 b[6]
*49 b[5]
*50 b[4]
*51 b[3]
*52 b[2]
*53 b[1]
*54 b[0]
*55 precision[3]
*56 precision[2]
*57 precision[1]
*58 precision[0]
*59 dvfs_v_state[1]
*60 dvfs_v_state[0]
*61 result[15]
*62 result[14]
*63 result[13]
*64 result[12]
*65 result[11]
*66 result[10]
*67 result[9]
*68 result[8]
*69 result[7]
*70 result[6]
*71 result[5]
*72 result[4]
*73 result[3]
*74 result[2]
*75 result[1]
*76 result[0]
*77 done
*78 b_reg[7]
*79 b_reg[6]
*80 b_reg[5]
*81 b_reg[4]
*82 b_reg[3]
*83 b_reg[2]
*84 b_reg[1]
*85 b_reg[0]
*86 cycle_count[3]
*87 cycle_count[2]
*88 cycle_count[1]
*89 cycle_count[0]
*90 div_counter[2]
*91 div_counter[1]
*92 div_counter[0]
*93 shifted_a[14]
*94 shifted_a[13]
*95 shifted_a[12]
*96 shifted_a[11]
*97 shifted_a[10]
*98 shifted_a[9]
*99 shifted_a[8]
*100 shifted_a[7]
*101 shifted_a[6]
*102 shifted_a[5]
*103 shifted_a[4]
*104 shifted_a[3]
*105 shifted_a[2]
*106 shifted_a[1]
*107 shifted_a[0]
*108 add_73_46_n_315
*109 add_73_46_n_317
*110 add_73_46_n_322
*111 add_73_46_n_327
*112 add_73_46_n_332
*113 add_73_46_n_340
*114 add_73_46_n_345
*115 add_73_46_n_352
*116 add_73_46_n_356
*117 add_73_46_n_361
*118 add_73_46_n_362
*119 add_73_46_n_368
*120 add_73_46_n_373
*121 add_73_46_n_377
*122 add_73_46_n_384
*123 add_73_46_n_389
*124 add_73_46_n_390
*125 add_73_46_n_391
*126 add_73_46_n_392
*127 add_73_46_n_393
*128 add_73_46_n_394
*129 add_73_46_n_411
*130 add_73_46_n_412
*131 add_73_46_n_413
*132 add_73_46_n_414
*133 add_73_46_n_415
*134 add_73_46_n_416
*135 add_73_46_n_417
*136 add_73_46_n_428
*137 add_73_46_n_429
*138 add_73_46_n_430
*139 add_73_46_n_431
*140 add_73_46_n_433
*141 add_73_46_n_434
*142 add_73_46_n_435
*143 add_73_46_n_436
*144 add_73_46_n_437
*145 add_73_46_n_438
*146 add_73_46_n_439
*147 add_73_46_n_440
*148 add_73_46_n_441
*149 add_73_46_n_445
*150 add_73_46_n_446
*151 add_73_46_n_447
*152 add_73_46_n_449
*153 add_73_46_n_450
*154 add_73_46_n_451
*155 add_73_46_n_452
*156 add_73_46_n_453
*157 add_73_46_n_454
*158 add_73_46_n_455
*159 add_73_46_n_456
*160 add_73_46_n_457
*161 add_73_46_n_458
*162 add_73_46_n_496
*163 add_73_46_n_512
*164 add_73_46_n_513
*165 n_0
*166 n_1
*167 n_2
*168 n_3
*169 n_4
*170 n_5
*171 n_6
*172 n_7
*173 n_8
*174 n_9
*175 n_10
*176 n_11
*177 n_12
*178 n_13
*179 n_14
*180 n_15
*181 n_16
*182 n_17
*183 n_18
*184 n_19
*185 n_20
*186 n_21
*187 n_22
*188 n_23
*189 n_24
*190 n_25
*191 n_26
*192 n_27
*193 n_28
*194 n_29
*195 n_30
*196 n_31
*197 n_32
*198 n_33
*199 n_34
*200 n_35
*201 n_36
*202 n_37
*203 n_38
*204 n_39
*205 n_40
*206 n_41
*207 n_42
*208 n_43
*209 n_44
*210 n_45
*211 n_46
*212 n_47
*213 n_48
*214 n_49
*215 n_50
*216 n_51
*217 n_52
*218 n_53
*219 n_54
*220 n_55
*221 n_56
*222 n_57
*223 n_58
*224 n_59
*225 n_60
*226 n_61
*227 n_62
*228 n_63
*229 n_64
*230 n_65
*231 n_66
*232 n_67
*233 n_68
*234 n_69
*235 n_70
*236 n_71
*237 n_72
*238 n_73
*239 n_74
*240 n_75
*241 n_76
*242 n_77
*243 n_78
*244 n_79
*245 n_80
*246 n_81
*247 n_82
*248 n_83
*249 n_84
*250 n_85
*251 n_86
*252 n_87
*253 n_88
*254 n_89
*255 n_90
*256 n_91
*257 n_92
*258 n_93
*259 n_94
*260 n_95
*261 n_96
*262 n_97
*263 n_98
*264 n_99
*265 n_100
*266 n_101
*267 n_102
*268 n_103
*269 n_104
*270 n_105
*271 n_106
*272 n_132
*273 n_133
*274 n_134
*275 state
*276 FE_PHC23_n_79
*277 FE_PHC22_n_82
*278 FE_PHC21_n_84
*279 FE_PHC20_n_85
*280 FE_PHC19_n_83
*281 FE_PHC18_div_counter_0
*282 FE_PHC17_n_82
*283 FE_PHC16_n_83
*284 FE_PHC15_n_84
*285 FE_PHC14_n_85
*286 FE_PHC13_n_79
*287 FE_PHC12_n_80
*288 FE_PHC11_n_90
*289 FE_PHC10_n_72
*290 FE_PHC9_n_38
*291 FE_PHC8_n_40
*292 FE_PHC7_n_37
*293 FE_PHC6_n_36
*294 FE_PHC5_n_39
*295 FE_PHC4_n_33
*296 FE_PHC3_n_34
*297 FE_PHC2_n_35
*298 FE_PHC1_n_1
*299 FE_RC_17_0
*300 FE_RC_16_0
*301 FE_RC_15_0
*302 FE_RC_14_0
*303 FE_RC_13_0
*304 FE_RC_12_0
*305 FE_RC_11_0
*306 FE_RC_10_0
*307 FE_RC_9_0
*308 FE_RC_8_0
*309 FE_RC_7_0
*310 FE_RC_6_0
*311 FE_RC_5_0
*312 FE_RC_4_0
*313 FE_RC_3_0
*314 FE_RC_2_0
*315 FE_RC_1_0
*316 FE_RC_0_0
*317 FE_OFC0_add_73_46_n_384
*318 b_reg_reg\[0\]
*319 b_reg_reg\[1\]
*320 b_reg_reg\[2\]
*321 b_reg_reg\[3\]
*322 b_reg_reg\[4\]
*323 b_reg_reg\[5\]
*324 b_reg_reg\[6\]
*325 b_reg_reg\[7\]
*326 cycle_count_reg\[1\]
*327 div_counter_reg\[1\]
*328 div_counter_reg\[2\]
*329 done_reg
*330 result_reg\[0\]
*331 result_reg\[1\]
*332 result_reg\[2\]
*333 result_reg\[3\]
*334 result_reg\[4\]
*335 result_reg\[5\]
*336 result_reg\[6\]
*337 result_reg\[7\]
*338 result_reg\[8\]
*339 result_reg\[9\]
*340 result_reg\[10\]
*341 result_reg\[11\]
*342 result_reg\[12\]
*343 result_reg\[13\]
*344 result_reg\[14\]
*345 shifted_a_reg\[0\]
*346 shifted_a_reg\[1\]
*347 shifted_a_reg\[2\]
*348 shifted_a_reg\[3\]
*349 shifted_a_reg\[4\]
*350 shifted_a_reg\[5\]
*351 shifted_a_reg\[6\]
*352 shifted_a_reg\[7\]
*353 shifted_a_reg\[8\]
*354 shifted_a_reg\[9\]
*355 shifted_a_reg\[10\]
*356 shifted_a_reg\[11\]
*357 shifted_a_reg\[12\]
*358 shifted_a_reg\[13\]
*359 shifted_a_reg\[14\]
*360 g2956__2398
*361 g2957__5107
*362 g2958__6260
*363 g2959__4319
*364 g2960__8428
*365 g2961__5526
*366 g2962__6783
*367 g2963__3680
*368 g2964__1617
*369 g2965__2802
*370 g2966__1705
*371 g2967__5122
*372 g2968__8246
*373 g2974__7098
*374 g2975__6131
*375 g2976__1881
*376 g2977__5115
*377 g2978__7482
*378 g2979__4733
*379 g2980__6161
*380 g2981__9315
*381 g2982__9945
*382 g2983__2883
*383 g2984__2346
*384 g2985__1666
*385 g2986__7410
*386 g2987__6417
*387 g2988__5477
*388 g2989__2398
*389 g2990__5107
*390 g2991__6260
*391 g2992__4319
*392 g2993__8428
*393 g2994__5526
*394 g2995__6783
*395 g2996__3680
*396 g2997__1617
*397 g2999__2802
*398 g3000__1705
*399 g3001__5122
*400 g3002__8246
*401 g3003__7098
*402 g3004
*403 g3005
*404 g3006__6131
*405 g3007__1881
*406 g3008__5115
*407 g3017__7482
*408 g3018__4733
*409 g3019__6161
*410 g3020__9315
*411 g3021__9945
*412 g3022__2883
*413 g3023__2346
*414 g3024__1666
*415 g3025__7410
*416 g3026__6417
*417 g3027__5477
*418 g3028__2398
*419 g3029__5107
*420 g3031__6260
*421 g3032__4319
*422 g3033__8428
*423 g3034__5526
*424 g3035__6783
*425 g3036__3680
*426 g3037__1617
*427 g3039__2802
*428 g3040__1705
*429 g3041__5122
*430 g3042__8246
*431 g3043__7098
*432 g3044__6131
*433 g3045__1881
*434 g3046__5115
*435 g3047__7482
*436 g3048
*437 g3049
*438 g3050__4733
*439 g3052__6161
*440 g3054__9315
*441 g3055__9945
*442 g3056
*443 g3074
*444 g3106
*445 g2__2883
*446 add_73_46_g519__2346
*447 add_73_46_g520__1666
*448 add_73_46_g522__6417
*449 add_73_46_g523__5477
*450 add_73_46_g524__2398
*451 add_73_46_g526__6260
*452 add_73_46_g528__8428
*453 add_73_46_g529__5526
*454 add_73_46_g531__3680
*455 add_73_46_g532__1617
*456 add_73_46_g533__2802
*457 add_73_46_g535__1705
*458 add_73_46_g536__5122
*459 add_73_46_g537__8246
*460 add_73_46_g538__7098
*461 add_73_46_g539__6131
*462 add_73_46_g541__5115
*463 add_73_46_g542__7482
*464 add_73_46_g543__4733
*465 add_73_46_g544__6161
*466 add_73_46_g545__9315
*467 add_73_46_g546__9945
*468 add_73_46_g547__2883
*469 add_73_46_g548__2346
*470 add_73_46_g550__7410
*471 add_73_46_g556__5107
*472 add_73_46_g557__6260
*473 add_73_46_g558__4319
*474 add_73_46_g559__8428
*475 add_73_46_g560__5526
*476 add_73_46_g561__6783
*477 add_73_46_g562__3680
*478 add_73_46_g563__1617
*479 add_73_46_g564__2802
*480 add_73_46_g565__1705
*481 add_73_46_g566__5122
*482 add_73_46_g567__8246
*483 add_73_46_g568__7098
*484 add_73_46_g569__6131
*485 add_73_46_g570
*486 add_73_46_g571__1881
*487 add_73_46_g572__5115
*488 add_73_46_g573__7482
*489 add_73_46_g574__4733
*490 add_73_46_g576__6161
*491 add_73_46_g577__9315
*492 add_73_46_g578__9945
*493 add_73_46_g579__2883
*494 add_73_46_g580__2346
*495 add_73_46_g581__1666
*496 add_73_46_g582__7410
*497 add_73_46_g583__6417
*498 add_73_46_g586__5477
*499 add_73_46_g587__2398
*500 add_73_46_g588__5107
*501 add_73_46_g589__6260
*502 add_73_46_g590__4319
*503 add_73_46_g591__8428
*504 add_73_46_g592__5526
*505 add_73_46_g593__6783
*506 add_73_46_g594__3680
*507 add_73_46_g595__1617
*508 add_73_46_g596__2802
*509 add_73_46_g597__1705
*510 add_73_46_g598__5122
*511 add_73_46_g601__7098
*512 g2
*513 cycle_count_reg\[3\]
*514 cycle_count_reg\[2\]
*515 div_counter_reg\[0\]
*516 cycle_count_reg\[0\]
*517 state_reg
*518 result_reg\[15\]


*PORTS

*36 I *C 0 0
*37 I *C 0 0
*38 I *C 0 0
*39 I *C 0 0
*40 I *C 0 0
*41 I *C 0 0
*42 I *C 0 0
*43 I *C 0 0
*44 I *C 0 0
*45 I *C 0 0
*46 I *C 0 0
*47 I *C 0 0
*48 I *C 0 0
*49 I *C 0 0
*50 I *C 0 0
*51 I *C 0 0
*52 I *C 0 0
*53 I *C 0 0
*54 I *C 0 0
*55 I *C 0 0
*56 I *C 0 0
*57 I *C 0 0
*58 I *C 0 0
*59 I *C 0 0
*60 I *C 0 0
*61 O *C 0 0
*62 O *C 0 0
*63 O *C 0 0
*64 O *C 0 0
*65 O *C 0 0
*66 O *C 0 0
*67 O *C 0 0
*68 O *C 0 0
*69 O *C 0 0
*70 O *C 0 0
*71 O *C 0 0
*72 O *C 0 0
*73 O *C 0 0
*74 O *C 0 0
*75 O *C 0 0
*76 O *C 0 0
*77 O *C 0 0


*D_NET *1 0.00151878

*CONN
*I *276:Z O *C 1093.08 1042.96 *L 0 *D buffd1
*I *358:D I *C 1088.6 1038.48 *L 0.0022 *D dfnrq1

*CAP
1 *276:Z 4.16629e-05
2 *358:D 7.09483e-05
3 *1:2 0.000198777
4 *1:3 0.000198777
5 *1:4 8.27912e-05
6 *1:5 8.27912e-05
7 *1:6 0.00037676
8 *1:7 0.00037676
9 *1:8 8.95118e-05

*RES
1 *1:8 *276:Z 0.194824
2 *1:4 *1:8 6
3 *1:5 *1:4 0.160034
4 *1:7 *1:5 6
5 *1:6 *1:7 1.28
6 *1:2 *1:6 6
7 *1:3 *1:2 0.960022
8 *358:D *1:3 6
*END

*D_NET *2 0.00209161

*CONN
*I *277:Z O *C 1074.04 1073.2 *L 0 *D buffd1
*I *355:D I *C 1072.36 1060.88 *L 0.0022 *D dfnrq1

*CAP
1 *277:Z 7.09541e-05
2 *355:D 7.09541e-05
3 *2:2 0.000183728
4 *2:3 0.000183728
5 *2:4 0.00064592
6 *2:5 0.00064592
7 *2:6 0.0001452
8 *2:7 0.0001452

*RES
1 *2:2 *277:Z 6
2 *2:3 *2:2 0.640045
3 *2:7 *2:3 6
4 *2:6 *2:7 0.480011
5 *2:4 *2:6 6
6 *2:5 *2:4 2.39996
7 *355:D *2:5 6
*END

*D_NET *3 0.00172133

*CONN
*I *278:Z O *C 1047.72 1065.36 *L 0 *D buffd1
*I *353:D I *C 1056.12 1066.48 *L 0.0022 *D dfnrq1

*CAP
1 *278:Z 7.0951e-05
2 *353:D 7.0951e-05
3 *3:2 0.000104886
4 *3:3 0.000104886
5 *3:4 0.000337211
6 *3:5 0.000340568125
7 *3:6 7.80602e-05
8 *3:8 5.65405e-05
9 *3:9 0.000124358
10 *3:10 0.000133442
11 *3:11 0.000154281
12 *3:12 0.000145197

*RES
1 *3:2 *353:D 6
2 *3:3 *3:2 0.319977
3 *3:12 *3:3 6
4 *3:11 *3:12 0.480011
5 *3:4 *3:11 0.160034
6 *3:5 *3:4 1.26855
7 *3:6 *3:5 0.171387
8 *3:6 *3:10 0.160034
9 *3:9 *3:10 0.480011
10 *3:8 *3:9 6
11 *3:8 *278:Z 6
12 *3:7 *3:8 0.15802
*END

*D_NET *4 0.00149234

*CONN
*I *279:Z O *C 1052.76 1054.16 *L 0 *D buffd1
*I *352:D I *C 1061.16 1055.28 *L 0.0022 *D dfnrq1

*CAP
1 *279:Z 7.09538e-05
2 *352:D 7.09538e-05
3 *4:2 0.00058139
4 *4:3 0.00058139
5 *4:5 5.65377e-05
6 *4:6 6.556e-05
7 *4:7 6.556e-05

*RES
1 *4:6 *352:D 6
2 *4:6 *4:7 0.160034
3 *4:2 *4:7 6
4 *4:3 *4:2 2.39996
5 *4:5 *4:3 6
6 *4:5 *279:Z 6
7 *4:4 *4:5 0.15802
*END

*D_NET *5 0.0015166

*CONN
*I *280:Z O *C 1053.3199 1076.5601 *L 0 *D buffd1
*I *354:D I *C 1060.04 1077.6801 *L 0.0022 *D dfnrq1

*CAP
1 *280:Z 7.09499e-05
2 *354:D 7.09499e-05
3 *5:2 0.00063081
4 *5:3 0.00063081
5 *5:6 5.65404e-05
6 *5:7 5.65404e-05

*RES
1 *5:7 *354:D 6
2 *5:5 *5:7 0.15802
3 *5:2 *5:7 6
4 *5:3 *5:2 1.92004
5 *5:6 *5:3 6
6 *5:6 *280:Z 6
7 *5:4 *5:6 0.15802
*END

*D_NET *6 0.000760938

*CONN
*I *281:Z O *C 1114.92 1073.2 *L 0 *D buffd1
*I *515:D I *C 1117.72 1072.08 *L 0.00392 *D dfcrb4

*CAP
1 *281:Z 7.09496e-05
2 *515:D 7.09496e-05
3 *6:2 0.000225417
4 *6:3 6.52505e-05
5 *6:4 0.00024427
6 *6:5 8.40996e-05

*RES
1 *6:5 *515:D 6
2 *6:4 *6:5 0.319977
3 *6:3 *281:Z 6
4 *6:2 *6:4 0.799988
5 *6:2 *6:3 0.160034
*END

*D_NET *7 0.00294814

*CONN
*I *277:I I *C 1072.36 1072.64 *L 0.0025 *D buffd1
*I *282:Z O *C 1073.48 1055.28 *L 0 *D bufbd4

*CAP
1 *277:I 7.09466e-05
2 *282:Z 7.09466e-05
3 *7:2 0.000145224
4 *7:3 0.000135798
5 *7:4 0.000151015
6 *7:5 0.000151015
7 *7:6 0.000703904
8 *7:7 0.00071333
9 *7:7 *66:7 8.501e-05
10 *7:6 *66:8 8.501e-05
11 *7:3 *66:6 6.27e-06
12 *7:2 *66:9 6.27000624e-06
13 *7:7 *36:76 0.0003117
14 *7:6 *36:77 0.000311700013

*RES
1 *7:6 *282:Z 6
2 *7:6 *7:7 3.84
3 *7:4 *7:7 0.160034
4 *7:3 *277:I 6
5 *7:4 *7:5 0.480011
6 *7:2 *7:3 0.640045
7 *7:2 *7:5 0.160034
*END

*D_NET *8 0.00125528

*CONN
*I *280:I I *C 1051.64 1077.12 *L 0.0025 *D buffd1
*I *283:Z O *C 1056.12 1077.6801 *L 0 *D bufbd4

*CAP
1 *280:I 7.09496e-05
2 *283:Z 7.09496e-05
3 *8:2 0.00045536
4 *8:3 0.00045536
5 *8:5 7.30619e-05
6 *8:6 7.30619e-05
7 *8:7 5.65387e-05

*RES
1 *8:5 *280:I 6
2 *8:5 *8:6 0.160034
3 *8:3 *8:6 6
4 *8:3 *8:2 1.44003
5 *8:7 *8:2 6
6 *8:7 *283:Z 6
7 *8:4 *8:7 0.15802
*END

*D_NET *9 0.00271538

*CONN
*I *278:I I *C 1046.04 1065.92 *L 0.0025 *D buffd1
*I *284:Z O *C 1058.36 1072.08 *L 0 *D bufbd4

*CAP
1 *278:I 7.09572e-05
2 *284:Z 7.09572e-05
3 *9:2 0.000231411
4 *9:3 0.000231411
5 *9:4 0.00085987
6 *9:5 0.000261523
7 *9:6 8.24903e-05
8 *9:7 0.000654897
9 *9:8 8.24903e-05
10 *9:4 *99:21 3.416e-05
11 *9:5 *99:17 3.416e-05
12 *9:2 *99:20 6.27e-06
13 *9:3 *99:19 6.27e-06
14 *9:2 *99:19 1.57e-06
15 *9:3 *99:18 1.57e-06
16 *9:2 *99:7 1.708e-05
17 *9:3 *99:8 1.708e-05
18 *9:2 *99:8 2.562e-05
19 *9:3 *99:9 2.5620003e-05

*RES
1 *9:8 *284:Z 6
2 *9:6 *9:8 0.160034
3 *9:7 *9:6 6
4 *9:4 *9:7 2.70859
5 *9:5 *9:4 1.13141
6 *9:2 *9:5 6
7 *9:3 *9:2 1.28
8 *278:I *9:3 6
*END

*D_NET *10 0.00267574

*CONN
*I *279:I I *C 1051.08 1054.72 *L 0.0025 *D buffd1
*I *285:Z O *C 1062.84 1060.88 *L 0 *D bufbd4

*CAP
1 *279:I 7.09517e-05
2 *285:Z 7.09517e-05
3 *10:2 0.000281513
4 *10:3 0.000281513
5 *10:4 0.000148224
6 *10:5 0.000148224
7 *10:6 0.00075179
8 *10:7 0.00075179
9 *10:7 *217:56 1.708e-05
10 *10:6 *217:19 1.708e-05
11 *10:2 *217:54 6.832e-05
12 *10:3 *217:55 6.83200033e-05

*RES
1 *10:4 *285:Z 6
2 *10:5 *10:4 0.480011
3 *10:7 *10:5 6
4 *10:6 *10:7 3.35999
5 *10:2 *10:6 6
6 *10:3 *10:2 1.28
7 *279:I *10:3 6
*END

*D_NET *11 0.00161152

*CONN
*I *276:I I *C 1091.4 1043.52 *L 0.0025 *D buffd1
*I *286:Z O *C 1090.84 1032.88 *L 0 *D bufbd4

*CAP
1 *276:I 7.0947e-05
2 *286:Z 7.0947e-05
3 *11:2 0.00038142
4 *11:3 0.000372003
5 *11:4 0.000148657
6 *11:5 0.000186348
7 *11:6 0.00021415
8 *11:7 0.000167043

*RES
1 *11:7 *276:I 6
2 *11:6 *11:7 0.960022
3 *11:3 *286:Z 6
4 *11:5 *11:6 0.319977
5 *11:3 *11:2 1.44003
6 *11:4 *11:5 0.640045
7 *11:4 *11:2 0.160034
*END

*D_NET *12 0.00149447

*CONN
*I *287:Z O *C 1079.08 1044.08 *L 0 *D bufbd4
*I *357:D I *C 1075.16 1049.6801 *L 0.0022 *D dfnrq1

*CAP
1 *287:Z 7.09508e-05
2 *357:D 7.09508e-05
3 *12:2 0.000300101
4 *12:3 6.45567e-05
5 *12:4 0.000376176
6 *12:5 0.00061173

*RES
1 *12:4 *287:Z 6
2 *12:3 *357:D 6
3 *12:4 *12:5 1.44003
4 *12:2 *12:3 0.160034
5 *12:2 *12:5 1.11996
*END

*D_NET *13 0.0006744

*CONN
*I *288:Z O *C 1079.08 1060.88 *L 0 *D bufbd4
*I *356:D I *C 1083 1060.88 *L 0.0022 *D dfnrq1

*CAP
1 *288:Z 7.09497e-05
2 *356:D 7.09497e-05
3 *13:4 5.65403e-05
4 *13:5 0.00020971
5 *13:6 5.65403e-05
6 *13:7 0.00020971

*RES
1 *13:6 *356:D 6
2 *13:3 *13:6 0.15802
3 *13:7 *13:6 6
4 *13:5 *13:7 0.799988
5 *13:4 *13:5 6
6 *13:4 *288:Z 6
7 *13:2 *13:4 0.15802
*END

*D_NET *14 0.0013208

*CONN
*I *289:Z O *C 1076.28 1042.96 *L 0 *D dl01d1
*I *359:D I *C 1072.36 1038.48 *L 0.0022 *D dfnrq1

*CAP
1 *289:Z 7.09478e-05
2 *359:D 7.09478e-05
3 *14:2 0.00028935
4 *14:3 0.0005249
5 *14:4 0.000300098
6 *14:5 6.45482e-05

*RES
1 *14:5 *289:Z 6
2 *14:4 *14:5 0.160034
3 *14:3 *14:4 1.11996
4 *14:2 *14:3 1.11996
5 *359:D *14:2 6
*END

*D_NET *15 0.00250375

*CONN
*I *290:Z O *C 1077.4 1095.6 *L 0 *D dl01d1
*I *320:D I *C 1068.4399 1100.08 *L 0.0022 *D dfnrq1

*CAP
1 *290:Z 7.09499e-05
2 *320:D 7.09499e-05
3 *15:2 0.000522958
4 *15:3 0.000522958
5 *15:5 0.0006297
6 *15:6 5.6537e-05
7 *15:7 0.0006297

*RES
1 *15:2 *320:D 6
2 *15:3 *15:2 1.59998
3 *15:5 *15:3 6
4 *15:5 *15:7 2.56
5 *15:6 *15:7 6
6 *15:6 *290:Z 6
7 *15:4 *15:6 0.15802
*END

*D_NET *16 0.00130196

*CONN
*I *291:Z O *C 1062.28 1106.8 *L 0 *D dl01d1
*I *319:D I *C 1058.36 1111.28 *L 0.0022 *D dfnrq1

*CAP
1 *291:Z 7.09488e-05
2 *319:D 7.09488e-05
3 *16:2 0.000297741
4 *16:3 6.45461e-05
5 *16:4 0.000282293
6 *16:5 0.00051548

*RES
1 *16:4 *291:Z 6
2 *16:3 *319:D 6
3 *16:4 *16:5 1.11996
4 *16:2 *16:3 0.160034
5 *16:2 *16:5 1.11996
*END

*D_NET *17 0.00130196

*CONN
*I *292:Z O *C 1061.16 1121.36 *L 0 *D dl01d1
*I *323:D I *C 1057.24 1116.88 *L 0.0022 *D dfnrq1

*CAP
1 *292:Z 7.09488e-05
2 *323:D 7.09488e-05
3 *17:2 6.45461e-05
4 *17:3 0.000297741
5 *17:4 0.00051548
6 *17:5 0.000282293

*RES
1 *17:5 *292:Z 6
2 *17:4 *17:5 1.11996
3 *17:3 *17:4 1.11996
4 *17:2 *17:3 0.160034
5 *323:D *17:2 6
*END

*D_NET *18 0.000701279

*CONN
*I *293:Z O *C 1044.36 1098.96 *L 0 *D dl01d1
*I *322:D I *C 1047.16 1100.08 *L 0.0022 *D dfnrq1

*CAP
1 *293:Z 7.09476e-05
2 *322:D 7.09476e-05
3 *18:4 5.65409e-05
4 *18:5 0.00022315
5 *18:6 5.65409e-05
6 *18:7 0.00022315

*RES
1 *18:6 *322:D 6
2 *18:3 *18:6 0.15802
3 *18:7 *18:6 6
4 *18:5 *18:7 0.799988
5 *18:4 *18:5 6
6 *18:4 *293:Z 6
7 *18:2 *18:4 0.15802
*END

*D_NET *19 0.000898676

*CONN
*I *294:Z O *C 1047.72 1095.6 *L 0 *D dl01d1
*I *318:D I *C 1047.72 1088.88 *L 0.0022 *D dfnrq1

*CAP
1 *294:Z 7.09492e-05
2 *318:D 7.09492e-05
3 *19:2 0.00037839
4 *19:3 0.00037839

*RES
1 *19:3 *294:Z 6
2 *19:2 *19:3 1.44003
3 *318:D *19:2 6
*END

*D_NET *20 0.00130342

*CONN
*I *295:Z O *C 1051.08 1106.8 *L 0 *D dl01d1
*I *325:D I *C 1047.16 1111.28 *L 0.0022 *D dfnrq1

*CAP
1 *295:Z 7.09488e-05
2 *325:D 7.09488e-05
3 *20:2 0.000298473
4 *20:3 6.52855e-05
5 *20:4 0.000282293
6 *20:5 0.00051548

*RES
1 *20:4 *295:Z 6
2 *20:3 *325:D 6
3 *20:4 *20:5 1.11996
4 *20:2 *20:3 0.160034
5 *20:2 *20:5 1.11996
*END

*D_NET *21 0.00134114

*CONN
*I *296:Z O *C 1077.96 1121.36 *L 0 *D dl01d1
*I *324:D I *C 1074.04 1116.88 *L 0.0022 *D dfnrq1

*CAP
1 *296:Z 7.09496e-05
2 *324:D 7.09496e-05
3 *21:2 0.000317334
4 *21:3 8.17829e-05
5 *21:4 0.00051784
6 *21:5 0.000282289

*RES
1 *21:5 *296:Z 6
2 *21:4 *21:5 1.11996
3 *21:2 *21:4 1.11996
4 *21:3 *21:2 0.160034
5 *324:D *21:3 6
*END

*D_NET *22 0.0014573

*CONN
*I *297:Z O *C 1062.84 1084.4 *L 0 *D dl01d1
*I *321:D I *C 1058.92 1088.88 *L 0.0022 *D dfnrq1

*CAP
1 *297:Z 7.09531e-05
2 *321:D 7.09531e-05
3 *22:3 5.65425e-05
4 *22:4 0.00028935
5 *22:5 0.00034008
6 *22:6 0.00034008
7 *22:7 0.00028935

*RES
1 *22:5 *297:Z 6
2 *22:5 *22:6 1.28
3 *22:7 *22:6 6
4 *22:4 *22:7 1.11996
5 *22:3 *321:D 6
6 *22:3 *22:4 6
7 *22:2 *22:3 0.15802
*END

*D_NET *23 0.0523599

*CONN
*I *298:Z O *C 1086.36 1072.64 *L 0 *D dl02d2
*I *339:CDN I *C 1053.3199 1083.84 *L 0.0086 *D dfcrq1
*I *336:CDN I *C 1053.3199 1043.52 *L 0.0086 *D dfcrq1
*I *334:CDN I *C 1055.5601 1021.12 *L 0.0086 *D dfcrq1
*I *335:CDN I *C 1055.5601 1032.3199 *L 0.0086 *D dfcrq1
*I *337:CDN I *C 1054.4399 1050.24 *L 0.0086 *D dfcrq1
*I *338:CDN I *C 1054.4399 1061.4399 *L 0.0086 *D dfcrq1
*I *340:CDN I *C 1074.04 1083.84 *L 0.0086 *D dfcrq1
*I *514:CDN I *C 1084.12 1088.3199 *L 0.00865 *D dfcrb1
*I *518:CDN I *C 1122.76 1065.92 *L 0.00839 *D dfcrb2
*I *330:CDN I *C 1121.64 1027.84 *L 0.0086 *D dfcrq1
*I *342:CDN I *C 1096.4399 1039.04 *L 0.0086 *D dfcrq1
*I *333:CDN I *C 1078.52 1016.64 *L 0.0086 *D dfcrq1
*I *332:CDN I *C 1094.2 1016.64 *L 0.0086 *D dfcrq1
*I *331:CDN I *C 1119.4 1016.64 *L 0.0086 *D dfcrq1
*I *343:CDN I *C 1121.08 1039.04 *L 0.0086 *D dfcrq1
*I *344:CDN I *C 1121.08 1054.72 *L 0.0086 *D dfcrq1
*I *515:CDN I *C 1120.52 1073.2 *L 0.00962 *D dfcrb4
*I *516:CDN I *C 1108.2 1110.72 *L 0.00865 *D dfcrb1
*I *326:CDN I *C 1107.08 1106.24 *L 0.0086 *D dfcrq1
*I *513:CDN I *C 1108.76 1095.04 *L 0.00865 *D dfcrb1
*I *328:CDN I *C 1122.2 1095.04 *L 0.0086 *D dfcrq1
*I *327:CDN I *C 1120.52 1083.84 *L 0.0086 *D dfcrq1
*I *329:CDN I *C 1108.2 1077.12 *L 0.0086 *D dfcrq1
*I *517:CDN I *C 1094.2 1077.12 *L 0.00865 *D dfcrb1
*I *341:CDN I *C 1088.6 1065.92 *L 0.0086 *D dfcrq1

*CAP
1 *298:Z 7.09496e-05
2 *339:CDN 7.09496e-05
3 *336:CDN 7.09496e-05
4 *334:CDN 7.09496e-05
5 *335:CDN 7.09496e-05
6 *337:CDN 7.09496e-05
7 *338:CDN 7.09496e-05
8 *340:CDN 7.09496e-05
9 *514:CDN 7.09496e-05
10 *518:CDN 7.09496e-05
11 *330:CDN 7.09496e-05
12 *342:CDN 7.09496e-05
13 *333:CDN 7.09496e-05
14 *332:CDN 7.09496e-05
15 *331:CDN 7.09496e-05
16 *343:CDN 7.09496e-05
17 *344:CDN 7.09496e-05
18 *515:CDN 7.09496e-05
19 *516:CDN 7.09496e-05
20 *326:CDN 7.09496e-05
21 *513:CDN 7.09496e-05
22 *328:CDN 7.09496e-05
23 *327:CDN 7.09496e-05
24 *329:CDN 7.09496e-05
25 *517:CDN 7.09496e-05
26 *341:CDN 7.09496e-05
27 *23:26 0.000890141
28 *23:27 0.00121821
29 *23:28 0.000913621
30 *23:29 0.0016673
31 *23:30 0.000347937
32 *23:31 0.000357018
33 *23:32 0.000421754
34 *23:33 0.000412673
35 *23:34 8.24807e-05
36 *23:35 9.15623e-05
37 *23:36 0.000365443
38 *23:37 8.34367e-05
39 *23:38 8.34367e-05
40 *23:39 0.000344322
41 *23:40 0.000344322
42 *23:41 0.000452763
43 *23:42 0.000552361
44 *23:43 0.000290042
45 *23:44 0.000199854
46 *23:45 0.000841387
47 *23:46 0.000258973
48 *23:47 0.000118777
49 *23:48 0.000805838
50 *23:49 0.00175062
51 *23:50 0.00126141
52 *23:51 0.000848019
53 *23:52 0.000894472
54 *23:53 0.00082887
55 *23:54 0.00082887
56 *23:55 0.000147276
57 *23:56 0.000156358
58 *23:57 0.000237644
59 *23:58 0.000483682
60 *23:59 0.000361201
61 *23:60 0.0011982
62 *23:61 0.000512988
63 *23:62 0.00044153
64 *23:63 0.000304889
65 *23:64 0.000304889
66 *23:65 0.00195776
67 *23:66 0.00139279
68 *23:67 0.000701012
69 *23:68 0.000370999
70 *23:69 0.000370999
71 *23:70 0.000436512
72 *23:71 0.000483622
73 *23:72 0.000353852
74 *23:73 0.000543519
75 *23:74 0.000260079
76 *23:75 0.000367593
77 *23:76 0.000358512
78 *23:77 0.000378049
79 *23:78 0.000378049
80 *23:79 0.000452703
81 *23:80 0.000570494
82 *23:83 6.8261e-05
83 *23:84 0.000114684
84 *23:85 0.000519201
85 *23:86 5.65207e-05
86 *23:87 0.000145185
87 *23:88 0.000154267
88 *23:89 0.000262887
89 *23:90 0.000148382
90 *23:91 0.000282275
91 *23:92 0.0001393
92 *23:93 0.000282275
93 *23:94 0.000226501
94 *23:95 0.000345547
95 *23:96 0.000303545
96 *23:97 6.45268e-05
97 *23:98 0.000188801
98 *23:99 0.000152534
99 *23:100 0.000228144
100 *23:101 0.000262648
101 *23:102 0.00110406
102 *23:103 0.000235224
103 *23:104 0.00142622
104 *23:105 0.00130371
105 *23:106 0.000218794
106 *23:107 0.000177449
107 *23:108 0.000224559
108 *23:109 0.000209712
109 *23:110 0.000258227
110 *23:111 0.000173446
111 *23:112 0.00043684
112 *23:113 0.00131578
113 *23:114 0.000912635
114 *23:115 0.00110406
115 *23:116 0.000154267
116 *23:117 6.45268e-05
117 *23:118 0.000404547
118 *23:119 0.000476363
119 *23:120 0.000145185
120 *23:121 0.000801536
121 *23:122 0.000469313
122 *23:123 0.000506655
123 *23:124 0.000548926
124 *23:125 0.000948872
125 *23:126 0.000545401
126 *23:127 0.000440037
127 *23:128 0.000393613
128 *23:129 0.000148352
129 *23:44 *189:4 0.00014168
130 *23:41 *189:2 0.00014168
131 *23:41 *189:4 2.834e-05
132 *23:42 *189:2 2.83400131e-05

*RES
1 *23:38 *333:CDN 6
2 *23:38 *23:37 0.319977
3 *23:87 *23:37 6
4 *23:87 *23:88 0.480011
5 *23:88 *23:54 0.160034
6 *23:54 *23:53 3.52002
7 *23:105 *342:CDN 6
8 *23:56 *23:53 0.160034
9 *23:104 *23:105 5.60001
10 *23:56 *23:55 0.480011
11 *23:101 *23:104 0.640045
12 *23:100 *23:55 6
13 *23:100 *23:101 0.480011
14 *23:99 *332:CDN 6
15 *23:99 *23:100 0.319977
16 *23:97 *23:99 0.160034
17 *23:98 *23:97 6
18 *23:98 *23:103 0.480011
19 *23:102 *23:103 0.319977
20 *23:102 *23:115 4.32001
21 *23:115 *23:52 0.319977
22 *23:52 *23:51 2.39996
23 *23:117 *23:51 6
24 *23:118 *331:CDN 6
25 *23:117 *23:118 0.160034
26 *23:118 *23:119 1.44003
27 *23:119 *23:124 0.640045
28 *23:125 *330:CDN 6
29 *23:124 *23:125 1.76001
30 *23:125 *23:126 2.24002
31 *23:57 *23:126 0.160034
32 *23:50 *343:CDN 6
33 *23:57 *23:50 0.960022
34 *23:49 *344:CDN 6
35 *23:50 *23:49 4.48004
36 *23:49 *23:121 3.04001
37 *23:121 *23:129 0.480011
38 *23:62 *518:CDN 6
39 *23:129 *23:62 0.160034
40 *23:62 *23:61 1.59998
41 *23:128 *328:CDN 6
42 *23:46 *23:61 0.640045
43 *23:127 *23:128 1.44003
44 *23:45 *515:CDN 6
45 *23:46 *23:45 0.480011
46 *23:123 *23:127 0.319977
47 *23:48 *327:CDN 6
48 *23:45 *23:48 3.04001
49 *23:122 *23:123 1.44003
50 *23:48 *23:47 0.319977
51 *23:47 *23:122 0.160034
52 *23:107 *326:CDN 6
53 *23:120 *23:47 6
54 *23:107 *23:108 0.640045
55 *23:111 *516:CDN 6
56 *23:116 *23:120 0.480011
57 *23:108 *23:110 0.319977
58 *23:110 *23:111 0.640045
59 *23:77 *23:116 0.160034
60 *23:110 *23:114 0.160034
61 *23:78 *23:77 1.59998
62 *23:113 *513:CDN 6
63 *23:113 *23:114 3.84
64 *23:78 *23:75 0.160034
65 *23:112 *23:113 1.76001
66 *23:76 *23:75 1.44003
67 *23:44 *23:112 0.160034
68 *23:43 *329:CDN 6
69 *23:41 *23:76 6
70 *23:41 *23:44 1.11996
71 *23:43 *23:42 1.11996
72 *23:42 *23:41 1.11996
73 *23:109 *23:42 6
74 *23:33 *334:CDN 6
75 *23:106 *23:109 0.799988
76 *23:59 *341:CDN 6
77 *23:33 *23:32 1.76001
78 *23:34 *335:CDN 6
79 *23:68 *23:106 0.160034
80 *23:59 *23:58 1.44003
81 *23:36 *23:32 0.160034
82 *23:35 *23:34 0.160034
83 *23:40 *517:CDN 6
84 *23:69 *23:68 1.76001
85 *23:94 *23:58 0.640045
86 *23:83 *336:CDN 6
87 *23:36 *23:27 1.28
88 *23:27 *23:35 0.160034
89 *23:40 *23:39 1.11996
90 *23:69 *23:72 0.160034
91 *23:94 *23:95 0.480011
92 *23:95 *298:Z 6
93 *23:83 *23:84 0.160034
94 *23:27 *23:26 3.52002
95 *23:73 *23:39 6
96 *23:73 *23:72 1.44003
97 *23:95 *23:96 0.960022
98 *23:84 *23:85 0.319977
99 *23:85 *23:26 0.160034
100 *23:74 *23:73 0.799988
101 *23:71 *23:96 0.319977
102 *23:93 *514:CDN 6
103 *23:60 *337:CDN 6
104 *23:85 *23:60 1.76001
105 *23:74 *23:79 0.319977
106 *23:71 *23:70 1.76001
107 *23:91 *23:93 1.11996
108 *23:29 *338:CDN 6
109 *23:60 *23:29 3.20004
110 *23:80 *23:79 1.76001
111 *23:80 *23:70 6
112 *23:92 *23:91 6
113 *23:29 *23:28 3.84
114 *23:89 *23:80 0.799988
115 *23:90 *23:92 0.480011
116 *23:64 *23:28 0.160034
117 *23:86 *340:CDN 6
118 *23:82 *23:86 0.15802
119 *23:89 *23:67 0.480011
120 *23:67 *23:90 0.160034
121 *23:64 *23:63 1.11996
122 *23:65 *23:86 6
123 *23:65 *23:67 2.39996
124 *23:31 *23:63 0.160034
125 *23:66 *23:65 5.91998
126 *23:30 *339:CDN 6
127 *23:31 *23:30 1.44003
128 *23:30 *23:66 6
129 *23:81 *23:30 0.15802
*END

*D_NET *24 0.00198698

*CONN
*I *302:A1 I *C 1038.76 1055.28 *L 0.00531 *D nd12d2
*I *301:ZN O *C 1049.4 1054.72 *L 0 *D inv0d0

*CAP
1 *302:A1 7.09466e-05
2 *301:ZN 4.209e-05
3 *24:2 9.63968e-05
4 *24:3 9.63968e-05
5 *24:4 0.0005844
6 *24:5 0.0005844
7 *24:6 8.44654e-05
8 *24:7 8.44654e-05
9 *24:8 8.99406e-05
10 *24:4 *137:11 0.00011956
11 *24:5 *137:5 0.00011956
12 *24:2 *137:7 7.17e-06
13 *24:3 *137:4 7.17000392e-06

*RES
1 *24:8 *301:ZN 0.194824
2 *24:7 *24:8 6
3 *24:7 *24:6 0.160034
4 *24:4 *24:6 6
5 *24:5 *24:4 2.87997
6 *24:2 *24:5 6
7 *24:3 *24:2 0.319977
8 *302:A1 *24:3 6
*END

*D_NET *25 0.000877487

*CONN
*I *302:A2 I *C 1036.52 1054.72 *L 0.00944 *D nd12d2
*I *300:ZN O *C 1032.04 1054.16 *L 0 *D nd12d1

*CAP
1 *302:A2 7.09517e-05
2 *300:ZN 7.09517e-05
3 *25:2 0.000334534
4 *25:3 0.0003358
5 *25:4 6.52488e-05

*RES
1 *25:4 *302:A2 6
2 *25:3 *25:4 0.160034
3 *25:2 *25:3 1.28
4 *300:ZN *25:2 6
*END

*D_NET *26 0.00262563

*CONN
*I *300:A1 I *C 1034.28 1055.28 *L 0.00373 *D nd12d1
*I *299:ZN O *C 1047.72 1054.72 *L 0 *D inv0d0

*CAP
1 *300:A1 4.18204e-05
2 *299:ZN 7.09531e-05
3 *26:2 0.000163352
4 *26:3 0.000163352
5 *26:4 8.9667e-05
6 *26:5 0.00020971
7 *26:6 0.000218786
8 *26:7 0.00059477
9 *26:8 0.000137541
10 *26:9 0.00059477
11 *26:10 0.000106221
12 *26:11 0.000106221
13 *26:12 0.000128456

*RES
1 *26:10 *299:ZN 6
2 *26:10 *26:11 0.480011
3 *26:12 *26:11 6
4 *26:8 *26:12 0.480011
5 *26:8 *26:9 0.160034
6 *26:7 *26:9 2.39996
7 *26:6 *26:7 0.160034
8 *26:5 *26:6 0.799988
9 *26:2 *26:5 6
10 *26:3 *26:2 0.640045
11 *26:4 *26:3 6
12 *300:A1 *26:4 0.194824
*END

*D_NET *27 0.00187326

*CONN
*I *305:A1 I *C 1109.3199 1004.88 *L 0.00531 *D nd12d2
*I *304:ZN O *C 1098.6801 1006 *L 0 *D inv0d1

*CAP
1 *305:A1 7.09518e-05
2 *304:ZN 7.09518e-05
3 *27:2 0.00051878
4 *27:3 0.00051878
5 *27:6 5.65366e-05
6 *27:7 5.65366e-05
7 *27:2 *143:3 0.0001281
8 *27:3 *143:4 0.0001281
9 *27:2 *164:3 8.54e-05
10 *27:3 *164:4 8.54e-05
11 *27:2 *164:4 7.686e-05
12 *27:3 *164:5 7.68599943e-05

*RES
1 *27:7 *305:A1 6
2 *27:5 *27:7 0.15802
3 *27:2 *27:7 6
4 *27:3 *27:2 3.04001
5 *27:6 *27:3 6
6 *27:6 *304:ZN 6
7 *27:4 *27:6 0.15802
*END

*D_NET *28 0.00123251

*CONN
*I *305:A2 I *C 1107.08 1005.44 *L 0.00944 *D nd12d2
*I *303:ZN O *C 1103.16 1006 *L 0 *D nd02d1

*CAP
1 *305:A2 7.09527e-05
2 *303:ZN 7.09527e-05
3 *28:2 0.00013931
4 *28:3 0.00013931
5 *28:4 0.000104892
6 *28:5 0.000104892
7 *28:6 0.0003011
8 *28:7 0.0003011

*RES
1 *28:3 *305:A2 6
2 *28:3 *28:2 0.480011
3 *28:6 *28:2 6
4 *28:7 *28:6 1.11996
5 *28:4 *28:7 6
6 *28:5 *28:4 0.319977
7 *303:ZN *28:5 6
*END

*D_NET *29 0.0028108

*CONN
*I *309:A1 I *C 1103.16 1072.08 *L 0.00531 *D nd12d2
*I *308:ZN O *C 1100.92 1054.72 *L 0 *D inv0d0

*CAP
1 *309:A1 7.0953e-05
2 *308:ZN 7.0953e-05
3 *29:2 0.000502824
4 *29:3 0.000540509
5 *29:4 0.000602489
6 *29:5 0.00061191
7 *29:6 0.000112363
8 *29:7 0.000150039
9 *29:8 0.000148769

*RES
1 *29:8 *309:A1 6
2 *29:7 *29:8 0.480011
3 *29:6 *29:7 0.160034
4 *29:4 *308:ZN 6
5 *29:3 *29:6 0.319977
6 *29:4 *29:5 2.39996
7 *29:2 *29:3 2.07999
8 *29:2 *29:5 0.160034
*END

*D_NET *30 0.000655321

*CONN
*I *309:A2 I *C 1100.92 1072.64 *L 0.00944 *D nd12d2